<?xml version="1.0" encoding="UTF-8"?>

<!-- generated on 2021-07-14 17:29:46 by Eclipse SUMO netedit Version 1.9.2
<configuration xmlns:xsi="http://www.w3.org/2001/XMLSchema-instance" xsi:noNamespaceSchemaLocation="http://sumo.dlr.de/xsd/netconvertConfiguration.xsd">

    <input>
        <sumo-net-file value="/Users/jonathanroy/Projects/redlight_approach/sumo/simple_traffic_light/simple_traffic_light.net.xml"/>
    </input>

    <output>
        <output-file value="/Users/jonathanroy/Projects/redlight_approach/sumo/simple_traffic_light/simple_traffic_light.net.xml"/>
    </output>

    <processing>
        <geometry.min-radius.fix.railways value="false"/>
        <geometry.max-grade.fix value="false"/>
        <offset.disable-normalization value="true"/>
        <lefthand value="false"/>
    </processing>

    <junctions>
        <no-turnarounds value="true"/>
        <junctions.corner-detail value="5"/>
        <junctions.limit-turn-speed value="5.5"/>
        <rectangular-lane-cut value="false"/>
    </junctions>

    <pedestrian>
        <walkingareas value="false"/>
    </pedestrian>

    <netedit>
        <route-files value="/Users/jonathanroy/Projects/redlight_approach/sumo/simple_traffic_light/simple_traffic_light.rou.xml"/>
    </netedit>

    <report>
        <aggregate-warnings value="5"/>
    </report>

</configuration>
-->

<routes xmlns:xsi="http://www.w3.org/2001/XMLSchema-instance" xsi:noNamespaceSchemaLocation="http://sumo.dlr.de/xsd/routes_file.xsd">
    <route edges="gneE0 gneE1" color="blue" id="route_0"/>
    <vType id="type_0" speedFactor="normc(1.00,0.00)" color="0,226,127" accel="2.5" decel="2.5" emergencyDecel="2.5" sigma="0"/>
    <vehicle id="vehicle_0" type="type_0" depart="0.00" departSpeed="18.00" departLane="0" route="route_0"/>
    <vehicle id="vehicle_1" type="type_0" depart="0.00" departSpeed="18.00" departLane="1" route="route_0"/>
</routes>
