<?xml version="1.0" encoding="UTF-8"?>

<!-- generated on 2021-10-06 11:21:52 by Eclipse SUMO netedit Version 1.9.2
<configuration xmlns:xsi="http://www.w3.org/2001/XMLSchema-instance" xsi:noNamespaceSchemaLocation="http://sumo.dlr.de/xsd/netconvertConfiguration.xsd">

    <input>
        <sumo-net-file value="/Users/jonathanroy/Projects/redlight_approach/sumo/intersection/f.net.xml"/>
    </input>

    <output>
        <output-file value="/Users/jonathanroy/Projects/redlight_approach/sumo/intersection/f.net.xml"/>
    </output>

    <processing>
        <geometry.min-radius.fix.railways value="false"/>
        <geometry.max-grade.fix value="false"/>
        <offset.disable-normalization value="true"/>
        <lefthand value="false"/>
    </processing>

    <junctions>
        <no-turnarounds value="true"/>
        <junctions.corner-detail value="5"/>
        <junctions.limit-turn-speed value="5.5"/>
        <rectangular-lane-cut value="false"/>
    </junctions>

    <pedestrian>
        <walkingareas value="false"/>
    </pedestrian>

    <netedit>
        <route-files value="/Users/jonathanroy/Projects/redlight_approach/sumo/intersection/f.rou.xml"/>
    </netedit>

    <report>
        <aggregate-warnings value="5"/>
    </report>

</configuration>
-->

<net version="1.9" junctionCornerDetail="5" limitTurnSpeed="5.50" xmlns:xsi="http://www.w3.org/2001/XMLSchema-instance" xsi:noNamespaceSchemaLocation="http://sumo.dlr.de/xsd/net_file.xsd">

    <location netOffset="0.00,0.00" convBoundary="-200.00,-200.00,200.00,200.00" origBoundary="-10000000000.00,-10000000000.00,10000000000.00,10000000000.00" projParameter="!"/>

    <edge id=":intersection_0" function="internal">
        <lane id=":intersection_0_0" index="0" speed="6.51" length="9.03" shape="1.60,-7.20 1.95,-4.75 3.00,-3.00 4.75,-1.95 7.20,-1.60"/>
    </edge>
    <edge id=":intersection_1" function="internal">
        <lane id=":intersection_1_0" index="0" speed="18.00" length="11.20" shape="1.60,-7.20 1.60,4.00"/>
    </edge>
    <edge id=":intersection_2" function="internal">
        <lane id=":intersection_2_0" index="0" speed="18.00" length="11.20" shape="-4.00,-1.60 7.20,-1.60"/>
    </edge>
    <edge id=":intersection_3" function="internal">
        <lane id=":intersection_3_0" index="0" speed="6.51" length="9.03" shape="-4.00,-1.60 -1.55,-1.25 0.20,-0.20 1.25,1.55 1.60,4.00"/>
    </edge>

    <edge id="gneE2" from="east" to="intersection" priority="-1" length="200.00">
        <lane id="gneE2_0" index="0" speed="18.00" length="200.00" shape="-200.00,-1.60 -4.00,-1.60"/>
    </edge>
    <edge id="gneE3" from="intersection" to="west" priority="-1" length="200.00">
        <lane id="gneE3_0" index="0" speed="18.00" length="200.00" shape="7.20,-1.60 200.00,-1.60"/>
    </edge>
    <edge id="gneE5" from="south" to="intersection" priority="-1" length="200.00">
        <lane id="gneE5_0" index="0" speed="18.00" length="200.00" shape="1.60,-200.00 1.60,-7.20"/>
    </edge>
    <edge id="gneE6" from="intersection" to="north" priority="-1" length="200.00">
        <lane id="gneE6_0" index="0" speed="18.00" length="200.00" shape="1.60,4.00 1.60,200.00"/>
    </edge>

    <tlLogic id="0" type="static" programID="0" offset="0">
        <phase duration="15" state="GGrr"/>
        <phase duration="4"  state="yyrr"/>
        <phase duration="15" state="rrGG"/>
        <phase duration="4"  state="rryy"/>
    </tlLogic>

    <junction id="east" type="dead_end" x="-200.00" y="0.00" incLanes="" intLanes="" shape="-200.00,0.00 -200.00,-3.20"/>
    <junction id="intersection" type="traffic_light" x="0.00" y="0.00" incLanes="gneE5_0 gneE2_0" intLanes=":intersection_0_0 :intersection_1_0 :intersection_2_0 :intersection_3_0" shape="0.00,4.00 3.20,4.00 3.64,1.78 4.20,1.00 4.98,0.44 5.98,0.11 7.20,0.00 7.20,-3.20 4.98,-3.64 4.20,-4.20 3.64,-4.98 3.31,-5.98 3.20,-7.20 0.00,-7.20 -0.44,-4.98 -1.00,-4.20 -1.78,-3.64 -2.78,-3.31 -4.00,-3.20 -4.00,0.00 -1.78,0.44 -1.00,1.00 -0.44,1.78 -0.11,2.78">
        <request index="0" response="0000" foes="0100" cont="0"/>
        <request index="1" response="0000" foes="1100" cont="0"/>
        <request index="2" response="0011" foes="0011" cont="0"/>
        <request index="3" response="0010" foes="0010" cont="0"/>
    </junction>
    <junction id="north" type="dead_end" x="0.00" y="200.00" incLanes="gneE6_0" intLanes="" shape="3.20,200.00 0.00,200.00"/>
    <junction id="south" type="dead_end" x="0.00" y="-200.00" incLanes="" intLanes="" shape="0.00,-200.00 3.20,-200.00"/>
    <junction id="west" type="dead_end" x="200.00" y="0.00" incLanes="gneE3_0" intLanes="" shape="200.00,-3.20 200.00,0.00"/>

    <connection from="gneE2" to="gneE3" fromLane="0" toLane="0" via=":intersection_2_0" tl="0" linkIndex="2" dir="s" state="o"/>
    <connection from="gneE2" to="gneE6" fromLane="0" toLane="0" via=":intersection_3_0" tl="0" linkIndex="3" dir="l" state="o"/>
    <connection from="gneE5" to="gneE3" fromLane="0" toLane="0" via=":intersection_0_0" tl="0" linkIndex="0" dir="r" state="O"/>
    <connection from="gneE5" to="gneE6" fromLane="0" toLane="0" via=":intersection_1_0" tl="0" linkIndex="1" dir="s" state="O"/>

    <connection from=":intersection_0" to="gneE3" fromLane="0" toLane="0" dir="r" state="M"/>
    <connection from=":intersection_1" to="gneE6" fromLane="0" toLane="0" dir="s" state="M"/>
    <connection from=":intersection_2" to="gneE3" fromLane="0" toLane="0" dir="s" state="M"/>
    <connection from=":intersection_3" to="gneE6" fromLane="0" toLane="0" dir="l" state="M"/>

</net>
