<?xml version="1.0" encoding="UTF-8"?>

<!-- generated on 2021-10-06 11:37:53 by Eclipse SUMO netedit Version 1.9.2
<configuration xmlns:xsi="http://www.w3.org/2001/XMLSchema-instance" xsi:noNamespaceSchemaLocation="http://sumo.dlr.de/xsd/netconvertConfiguration.xsd">

    <input>
        <sumo-net-file value="/Users/jonathanroy/Projects/redlight_approach/sumo/intersection/f.net.xml"/>
    </input>

    <output>
        <output-file value="/Users/jonathanroy/Projects/redlight_approach/sumo/intersection/f.net.xml"/>
    </output>

    <processing>
        <geometry.min-radius.fix.railways value="false"/>
        <geometry.max-grade.fix value="false"/>
        <offset.disable-normalization value="true"/>
        <lefthand value="false"/>
    </processing>

    <junctions>
        <no-turnarounds value="true"/>
        <junctions.corner-detail value="5"/>
        <junctions.limit-turn-speed value="5.5"/>
        <rectangular-lane-cut value="false"/>
    </junctions>

    <pedestrian>
        <walkingareas value="false"/>
    </pedestrian>

    <netedit>
        <route-files value="/Users/jonathanroy/Projects/redlight_approach/sumo/intersection/f.rou.xml"/>
    </netedit>

    <report>
        <aggregate-warnings value="5"/>
    </report>

</configuration>
-->

<routes xmlns:xsi="http://www.w3.org/2001/XMLSchema-instance" xsi:noNamespaceSchemaLocation="http://sumo.dlr.de/xsd/routes_file.xsd">
    <route edges="gneE5 gneE6" color="yellow" id="route_0"/>
    <route edges="gneE5 gneE3" color="yellow" id="route_1"/>
    <flow id="flow_0" begin="0.00" departSpeed="18.00" color="orange" route="route_0" end="3600.00" vehsPerHour="300.00"/>
    <flow id="flow_1" begin="0.00" departSpeed="18.00" color="green" route="route_1" end="3600.00" vehsPerHour="300.00"/>
</routes>
