<?xml version="1.0" encoding="UTF-8"?>

<!-- generated on 2021-10-06 11:51:34 by Eclipse SUMO netedit Version 1.9.2
<configuration xmlns:xsi="http://www.w3.org/2001/XMLSchema-instance" xsi:noNamespaceSchemaLocation="http://sumo.dlr.de/xsd/netconvertConfiguration.xsd">

    <input>
        <sumo-net-file value="/Users/jonathanroy/Projects/redlight_approach/sumo/intersection/f.net.xml"/>
    </input>

    <output>
        <output-file value="/Users/jonathanroy/Projects/redlight_approach/sumo/intersection/f.net.xml"/>
    </output>

    <processing>
        <geometry.min-radius.fix.railways value="false"/>
        <geometry.max-grade.fix value="false"/>
        <offset.disable-normalization value="true"/>
        <lefthand value="false"/>
    </processing>

    <junctions>
        <no-turnarounds value="true"/>
        <junctions.corner-detail value="5"/>
        <junctions.limit-turn-speed value="5.5"/>
        <rectangular-lane-cut value="false"/>
    </junctions>

    <pedestrian>
        <walkingareas value="false"/>
    </pedestrian>

    <netedit>
        <route-files value="/Users/jonathanroy/Projects/redlight_approach/sumo/intersection/randomflows.rou.xml"/>
    </netedit>

    <report>
        <aggregate-warnings value="5"/>
    </report>

</configuration>
-->

<routes xmlns:xsi="http://www.w3.org/2001/XMLSchema-instance" xsi:noNamespaceSchemaLocation="http://sumo.dlr.de/xsd/routes_file.xsd">
    <vehicle id="flow_0.0" depart="0.79" departSpeed="18.00" color="orange">
        <route edges="gneE5 gneE6" color="yellow"/>
    </vehicle>
    <vehicle id="flow_1.0" depart="2.36" departSpeed="18.00" color="green">
        <route edges="gneE5 gneE3" color="yellow"/>
    </vehicle>
    <vehicle id="flow_0.1" depart="9.74" departSpeed="18.00" color="orange">
        <route edges="gneE5 gneE6" color="yellow"/>
    </vehicle>
    <vehicle id="flow_1.1" depart="13.05" departSpeed="18.00" color="green">
        <route edges="gneE5 gneE3" color="yellow"/>
    </vehicle>
    <vehicle id="flow_0.2" depart="13.56" departSpeed="18.00" color="orange">
        <route edges="gneE5 gneE6" color="yellow"/>
    </vehicle>
    <vehicle id="flow_0.3" depart="16.72" departSpeed="18.00" color="orange">
        <route edges="gneE5 gneE6" color="yellow"/>
    </vehicle>
    <vehicle id="flow_0.4" depart="18.13" departSpeed="18.00" color="orange">
        <route edges="gneE5 gneE6" color="yellow"/>
    </vehicle>
    <vehicle id="flow_0.5" depart="18.39" departSpeed="18.00" color="orange">
        <route edges="gneE5 gneE6" color="yellow"/>
    </vehicle>
    <vehicle id="flow_1.2" depart="22.71" departSpeed="18.00" color="green">
        <route edges="gneE5 gneE3" color="yellow"/>
    </vehicle>
    <vehicle id="flow_0.6" depart="27.48" departSpeed="18.00" color="orange">
        <route edges="gneE5 gneE6" color="yellow"/>
    </vehicle>
    <vehicle id="flow_1.3" depart="36.86" departSpeed="18.00" color="green">
        <route edges="gneE5 gneE3" color="yellow"/>
    </vehicle>
    <vehicle id="flow_1.4" depart="39.03" departSpeed="18.00" color="green">
        <route edges="gneE5 gneE3" color="yellow"/>
    </vehicle>
    <vehicle id="flow_0.7" depart="47.01" departSpeed="18.00" color="orange">
        <route edges="gneE5 gneE6" color="yellow"/>
    </vehicle>
    <vehicle id="flow_1.5" depart="50.60" departSpeed="18.00" color="green">
        <route edges="gneE5 gneE3" color="yellow"/>
    </vehicle>
    <vehicle id="flow_0.8" depart="55.65" departSpeed="18.00" color="orange">
        <route edges="gneE5 gneE6" color="yellow"/>
    </vehicle>
    <vehicle id="flow_0.9" depart="57.85" departSpeed="18.00" color="orange">
        <route edges="gneE5 gneE6" color="yellow"/>
    </vehicle>
    <vehicle id="flow_1.6" depart="81.63" departSpeed="18.00" color="green">
        <route edges="gneE5 gneE3" color="yellow"/>
    </vehicle>
    <vehicle id="flow_1.7" depart="88.60" departSpeed="18.00" color="green">
        <route edges="gneE5 gneE3" color="yellow"/>
    </vehicle>
    <vehicle id="flow_0.10" depart="89.60" departSpeed="18.00" color="orange">
        <route edges="gneE5 gneE6" color="yellow"/>
    </vehicle>
    <vehicle id="flow_1.8" depart="94.84" departSpeed="18.00" color="green">
        <route edges="gneE5 gneE3" color="yellow"/>
    </vehicle>
    <vehicle id="flow_0.11" depart="100.63" departSpeed="18.00" color="orange">
        <route edges="gneE5 gneE6" color="yellow"/>
    </vehicle>
    <vehicle id="flow_1.9" depart="107.79" departSpeed="18.00" color="green">
        <route edges="gneE5 gneE3" color="yellow"/>
    </vehicle>
    <vehicle id="flow_0.12" depart="108.52" departSpeed="18.00" color="orange">
        <route edges="gneE5 gneE6" color="yellow"/>
    </vehicle>
    <vehicle id="flow_1.10" depart="116.59" departSpeed="18.00" color="green">
        <route edges="gneE5 gneE3" color="yellow"/>
    </vehicle>
    <vehicle id="flow_0.13" depart="121.78" departSpeed="18.00" color="orange">
        <route edges="gneE5 gneE6" color="yellow"/>
    </vehicle>
    <vehicle id="flow_1.11" depart="128.54" departSpeed="18.00" color="green">
        <route edges="gneE5 gneE3" color="yellow"/>
    </vehicle>
    <vehicle id="flow_1.12" depart="136.66" departSpeed="18.00" color="green">
        <route edges="gneE5 gneE3" color="yellow"/>
    </vehicle>
    <vehicle id="flow_1.13" depart="139.18" departSpeed="18.00" color="green">
        <route edges="gneE5 gneE3" color="yellow"/>
    </vehicle>
    <vehicle id="flow_1.14" depart="150.67" departSpeed="18.00" color="green">
        <route edges="gneE5 gneE3" color="yellow"/>
    </vehicle>
    <vehicle id="flow_0.14" depart="158.69" departSpeed="18.00" color="orange">
        <route edges="gneE5 gneE6" color="yellow"/>
    </vehicle>
    <vehicle id="flow_0.15" depart="163.02" departSpeed="18.00" color="orange">
        <route edges="gneE5 gneE6" color="yellow"/>
    </vehicle>
    <vehicle id="flow_0.16" depart="169.47" departSpeed="18.00" color="orange">
        <route edges="gneE5 gneE6" color="yellow"/>
    </vehicle>
    <vehicle id="flow_0.17" depart="169.75" departSpeed="18.00" color="orange">
        <route edges="gneE5 gneE6" color="yellow"/>
    </vehicle>
    <vehicle id="flow_1.15" depart="179.52" departSpeed="18.00" color="green">
        <route edges="gneE5 gneE3" color="yellow"/>
    </vehicle>
    <vehicle id="flow_0.18" depart="186.01" departSpeed="18.00" color="orange">
        <route edges="gneE5 gneE6" color="yellow"/>
    </vehicle>
    <vehicle id="flow_0.19" depart="188.13" departSpeed="18.00" color="orange">
        <route edges="gneE5 gneE6" color="yellow"/>
    </vehicle>
    <vehicle id="flow_0.20" depart="196.41" departSpeed="18.00" color="orange">
        <route edges="gneE5 gneE6" color="yellow"/>
    </vehicle>
    <vehicle id="flow_0.21" depart="201.67" departSpeed="18.00" color="orange">
        <route edges="gneE5 gneE6" color="yellow"/>
    </vehicle>
    <vehicle id="flow_0.22" depart="207.72" departSpeed="18.00" color="orange">
        <route edges="gneE5 gneE6" color="yellow"/>
    </vehicle>
    <vehicle id="flow_0.23" depart="209.51" departSpeed="18.00" color="orange">
        <route edges="gneE5 gneE6" color="yellow"/>
    </vehicle>
    <vehicle id="flow_1.16" depart="211.05" departSpeed="18.00" color="green">
        <route edges="gneE5 gneE3" color="yellow"/>
    </vehicle>
    <vehicle id="flow_0.24" depart="212.57" departSpeed="18.00" color="orange">
        <route edges="gneE5 gneE6" color="yellow"/>
    </vehicle>
    <vehicle id="flow_1.17" depart="214.16" departSpeed="18.00" color="green">
        <route edges="gneE5 gneE3" color="yellow"/>
    </vehicle>
    <vehicle id="flow_1.18" depart="215.86" departSpeed="18.00" color="green">
        <route edges="gneE5 gneE3" color="yellow"/>
    </vehicle>
    <vehicle id="flow_1.19" depart="225.98" departSpeed="18.00" color="green">
        <route edges="gneE5 gneE3" color="yellow"/>
    </vehicle>
    <vehicle id="flow_0.25" depart="238.38" departSpeed="18.00" color="orange">
        <route edges="gneE5 gneE6" color="yellow"/>
    </vehicle>
    <vehicle id="flow_1.20" depart="282.71" departSpeed="18.00" color="green">
        <route edges="gneE5 gneE3" color="yellow"/>
    </vehicle>
    <vehicle id="flow_1.21" depart="289.45" departSpeed="18.00" color="green">
        <route edges="gneE5 gneE3" color="yellow"/>
    </vehicle>
    <vehicle id="flow_1.22" depart="292.21" departSpeed="18.00" color="green">
        <route edges="gneE5 gneE3" color="yellow"/>
    </vehicle>
    <vehicle id="flow_1.23" depart="311.58" departSpeed="18.00" color="green">
        <route edges="gneE5 gneE3" color="yellow"/>
    </vehicle>
    <vehicle id="flow_1.24" depart="315.31" departSpeed="18.00" color="green">
        <route edges="gneE5 gneE3" color="yellow"/>
    </vehicle>
    <vehicle id="flow_0.26" depart="319.61" departSpeed="18.00" color="orange">
        <route edges="gneE5 gneE6" color="yellow"/>
    </vehicle>
    <vehicle id="flow_1.25" depart="321.07" departSpeed="18.00" color="green">
        <route edges="gneE5 gneE3" color="yellow"/>
    </vehicle>
    <vehicle id="flow_0.27" depart="322.82" departSpeed="18.00" color="orange">
        <route edges="gneE5 gneE6" color="yellow"/>
    </vehicle>
    <vehicle id="flow_0.28" depart="325.69" departSpeed="18.00" color="orange">
        <route edges="gneE5 gneE6" color="yellow"/>
    </vehicle>
    <vehicle id="flow_1.26" depart="326.27" departSpeed="18.00" color="green">
        <route edges="gneE5 gneE3" color="yellow"/>
    </vehicle>
    <vehicle id="flow_0.29" depart="345.66" departSpeed="18.00" color="orange">
        <route edges="gneE5 gneE6" color="yellow"/>
    </vehicle>
    <vehicle id="flow_1.27" depart="349.67" departSpeed="18.00" color="green">
        <route edges="gneE5 gneE3" color="yellow"/>
    </vehicle>
    <vehicle id="flow_1.28" depart="352.22" departSpeed="18.00" color="green">
        <route edges="gneE5 gneE3" color="yellow"/>
    </vehicle>
    <vehicle id="flow_0.30" depart="352.32" departSpeed="18.00" color="orange">
        <route edges="gneE5 gneE6" color="yellow"/>
    </vehicle>
    <vehicle id="flow_0.31" depart="353.09" departSpeed="18.00" color="orange">
        <route edges="gneE5 gneE6" color="yellow"/>
    </vehicle>
    <vehicle id="flow_1.29" depart="357.13" departSpeed="18.00" color="green">
        <route edges="gneE5 gneE3" color="yellow"/>
    </vehicle>
    <vehicle id="flow_0.32" depart="363.29" departSpeed="18.00" color="orange">
        <route edges="gneE5 gneE6" color="yellow"/>
    </vehicle>
    <vehicle id="flow_0.33" depart="363.53" departSpeed="18.00" color="orange">
        <route edges="gneE5 gneE6" color="yellow"/>
    </vehicle>
    <vehicle id="flow_0.34" depart="368.78" departSpeed="18.00" color="orange">
        <route edges="gneE5 gneE6" color="yellow"/>
    </vehicle>
    <vehicle id="flow_1.30" depart="370.79" departSpeed="18.00" color="green">
        <route edges="gneE5 gneE3" color="yellow"/>
    </vehicle>
    <vehicle id="flow_0.35" depart="381.92" departSpeed="18.00" color="orange">
        <route edges="gneE5 gneE6" color="yellow"/>
    </vehicle>
    <vehicle id="flow_0.36" depart="382.76" departSpeed="18.00" color="orange">
        <route edges="gneE5 gneE6" color="yellow"/>
    </vehicle>
    <vehicle id="flow_0.37" depart="386.17" departSpeed="18.00" color="orange">
        <route edges="gneE5 gneE6" color="yellow"/>
    </vehicle>
    <vehicle id="flow_0.38" depart="397.95" departSpeed="18.00" color="orange">
        <route edges="gneE5 gneE6" color="yellow"/>
    </vehicle>
    <vehicle id="flow_1.31" depart="398.44" departSpeed="18.00" color="green">
        <route edges="gneE5 gneE3" color="yellow"/>
    </vehicle>
    <vehicle id="flow_0.39" depart="400.80" departSpeed="18.00" color="orange">
        <route edges="gneE5 gneE6" color="yellow"/>
    </vehicle>
    <vehicle id="flow_0.40" depart="401.16" departSpeed="18.00" color="orange">
        <route edges="gneE5 gneE6" color="yellow"/>
    </vehicle>
    <vehicle id="flow_0.41" depart="401.49" departSpeed="18.00" color="orange">
        <route edges="gneE5 gneE6" color="yellow"/>
    </vehicle>
    <vehicle id="flow_0.42" depart="407.58" departSpeed="18.00" color="orange">
        <route edges="gneE5 gneE6" color="yellow"/>
    </vehicle>
    <vehicle id="flow_0.43" depart="410.68" departSpeed="18.00" color="orange">
        <route edges="gneE5 gneE6" color="yellow"/>
    </vehicle>
    <vehicle id="flow_0.44" depart="417.29" departSpeed="18.00" color="orange">
        <route edges="gneE5 gneE6" color="yellow"/>
    </vehicle>
    <vehicle id="flow_0.45" depart="423.68" departSpeed="18.00" color="orange">
        <route edges="gneE5 gneE6" color="yellow"/>
    </vehicle>
    <vehicle id="flow_1.32" depart="424.84" departSpeed="18.00" color="green">
        <route edges="gneE5 gneE3" color="yellow"/>
    </vehicle>
    <vehicle id="flow_0.46" depart="425.96" departSpeed="18.00" color="orange">
        <route edges="gneE5 gneE6" color="yellow"/>
    </vehicle>
    <vehicle id="flow_1.33" depart="426.92" departSpeed="18.00" color="green">
        <route edges="gneE5 gneE3" color="yellow"/>
    </vehicle>
    <vehicle id="flow_1.34" depart="429.67" departSpeed="18.00" color="green">
        <route edges="gneE5 gneE3" color="yellow"/>
    </vehicle>
    <vehicle id="flow_0.47" depart="433.87" departSpeed="18.00" color="orange">
        <route edges="gneE5 gneE6" color="yellow"/>
    </vehicle>
    <vehicle id="flow_1.35" depart="435.93" departSpeed="18.00" color="green">
        <route edges="gneE5 gneE3" color="yellow"/>
    </vehicle>
    <vehicle id="flow_0.48" depart="436.43" departSpeed="18.00" color="orange">
        <route edges="gneE5 gneE6" color="yellow"/>
    </vehicle>
    <vehicle id="flow_1.36" depart="441.97" departSpeed="18.00" color="green">
        <route edges="gneE5 gneE3" color="yellow"/>
    </vehicle>
    <vehicle id="flow_0.49" depart="447.19" departSpeed="18.00" color="orange">
        <route edges="gneE5 gneE6" color="yellow"/>
    </vehicle>
    <vehicle id="flow_0.50" depart="448.25" departSpeed="18.00" color="orange">
        <route edges="gneE5 gneE6" color="yellow"/>
    </vehicle>
    <vehicle id="flow_1.37" depart="462.52" departSpeed="18.00" color="green">
        <route edges="gneE5 gneE3" color="yellow"/>
    </vehicle>
    <vehicle id="flow_1.38" depart="464.16" departSpeed="18.00" color="green">
        <route edges="gneE5 gneE3" color="yellow"/>
    </vehicle>
    <vehicle id="flow_0.51" depart="476.94" departSpeed="18.00" color="orange">
        <route edges="gneE5 gneE6" color="yellow"/>
    </vehicle>
    <vehicle id="flow_1.39" depart="478.93" departSpeed="18.00" color="green">
        <route edges="gneE5 gneE3" color="yellow"/>
    </vehicle>
    <vehicle id="flow_0.52" depart="491.59" departSpeed="18.00" color="orange">
        <route edges="gneE5 gneE6" color="yellow"/>
    </vehicle>
    <vehicle id="flow_0.53" depart="494.74" departSpeed="18.00" color="orange">
        <route edges="gneE5 gneE6" color="yellow"/>
    </vehicle>
    <vehicle id="flow_1.40" depart="505.51" departSpeed="18.00" color="green">
        <route edges="gneE5 gneE3" color="yellow"/>
    </vehicle>
    <vehicle id="flow_1.41" depart="506.14" departSpeed="18.00" color="green">
        <route edges="gneE5 gneE3" color="yellow"/>
    </vehicle>
    <vehicle id="flow_0.54" depart="542.30" departSpeed="18.00" color="orange">
        <route edges="gneE5 gneE6" color="yellow"/>
    </vehicle>
    <vehicle id="flow_1.42" depart="553.25" departSpeed="18.00" color="green">
        <route edges="gneE5 gneE3" color="yellow"/>
    </vehicle>
    <vehicle id="flow_0.55" depart="555.59" departSpeed="18.00" color="orange">
        <route edges="gneE5 gneE6" color="yellow"/>
    </vehicle>
    <vehicle id="flow_0.56" depart="557.09" departSpeed="18.00" color="orange">
        <route edges="gneE5 gneE6" color="yellow"/>
    </vehicle>
    <vehicle id="flow_0.57" depart="558.98" departSpeed="18.00" color="orange">
        <route edges="gneE5 gneE6" color="yellow"/>
    </vehicle>
    <vehicle id="flow_1.43" depart="568.32" departSpeed="18.00" color="green">
        <route edges="gneE5 gneE3" color="yellow"/>
    </vehicle>
    <vehicle id="flow_1.44" depart="572.23" departSpeed="18.00" color="green">
        <route edges="gneE5 gneE3" color="yellow"/>
    </vehicle>
    <vehicle id="flow_1.45" depart="574.15" departSpeed="18.00" color="green">
        <route edges="gneE5 gneE3" color="yellow"/>
    </vehicle>
    <vehicle id="flow_0.58" depart="581.56" departSpeed="18.00" color="orange">
        <route edges="gneE5 gneE6" color="yellow"/>
    </vehicle>
    <vehicle id="flow_1.46" depart="582.47" departSpeed="18.00" color="green">
        <route edges="gneE5 gneE3" color="yellow"/>
    </vehicle>
    <vehicle id="flow_0.59" depart="587.91" departSpeed="18.00" color="orange">
        <route edges="gneE5 gneE6" color="yellow"/>
    </vehicle>
    <vehicle id="flow_1.47" depart="592.10" departSpeed="18.00" color="green">
        <route edges="gneE5 gneE3" color="yellow"/>
    </vehicle>
    <vehicle id="flow_0.60" depart="596.97" departSpeed="18.00" color="orange">
        <route edges="gneE5 gneE6" color="yellow"/>
    </vehicle>
    <vehicle id="flow_0.61" depart="597.95" departSpeed="18.00" color="orange">
        <route edges="gneE5 gneE6" color="yellow"/>
    </vehicle>
    <vehicle id="flow_1.48" depart="600.40" departSpeed="18.00" color="green">
        <route edges="gneE5 gneE3" color="yellow"/>
    </vehicle>
    <vehicle id="flow_1.49" depart="604.53" departSpeed="18.00" color="green">
        <route edges="gneE5 gneE3" color="yellow"/>
    </vehicle>
    <vehicle id="flow_1.50" depart="610.28" departSpeed="18.00" color="green">
        <route edges="gneE5 gneE3" color="yellow"/>
    </vehicle>
    <vehicle id="flow_0.62" depart="617.57" departSpeed="18.00" color="orange">
        <route edges="gneE5 gneE6" color="yellow"/>
    </vehicle>
    <vehicle id="flow_0.63" depart="620.30" departSpeed="18.00" color="orange">
        <route edges="gneE5 gneE6" color="yellow"/>
    </vehicle>
    <vehicle id="flow_0.64" depart="627.48" departSpeed="18.00" color="orange">
        <route edges="gneE5 gneE6" color="yellow"/>
    </vehicle>
    <vehicle id="flow_0.65" depart="628.79" departSpeed="18.00" color="orange">
        <route edges="gneE5 gneE6" color="yellow"/>
    </vehicle>
    <vehicle id="flow_1.51" depart="634.78" departSpeed="18.00" color="green">
        <route edges="gneE5 gneE3" color="yellow"/>
    </vehicle>
    <vehicle id="flow_1.52" depart="652.54" departSpeed="18.00" color="green">
        <route edges="gneE5 gneE3" color="yellow"/>
    </vehicle>
    <vehicle id="flow_0.66" depart="654.29" departSpeed="18.00" color="orange">
        <route edges="gneE5 gneE6" color="yellow"/>
    </vehicle>
    <vehicle id="flow_1.53" depart="656.16" departSpeed="18.00" color="green">
        <route edges="gneE5 gneE3" color="yellow"/>
    </vehicle>
    <vehicle id="flow_0.67" depart="666.67" departSpeed="18.00" color="orange">
        <route edges="gneE5 gneE6" color="yellow"/>
    </vehicle>
    <vehicle id="flow_0.68" depart="669.55" departSpeed="18.00" color="orange">
        <route edges="gneE5 gneE6" color="yellow"/>
    </vehicle>
    <vehicle id="flow_0.69" depart="674.42" departSpeed="18.00" color="orange">
        <route edges="gneE5 gneE6" color="yellow"/>
    </vehicle>
    <vehicle id="flow_1.54" depart="676.47" departSpeed="18.00" color="green">
        <route edges="gneE5 gneE3" color="yellow"/>
    </vehicle>
    <vehicle id="flow_1.55" depart="676.92" departSpeed="18.00" color="green">
        <route edges="gneE5 gneE3" color="yellow"/>
    </vehicle>
    <vehicle id="flow_0.70" depart="688.48" departSpeed="18.00" color="orange">
        <route edges="gneE5 gneE6" color="yellow"/>
    </vehicle>
    <vehicle id="flow_0.71" depart="696.11" departSpeed="18.00" color="orange">
        <route edges="gneE5 gneE6" color="yellow"/>
    </vehicle>
    <vehicle id="flow_1.56" depart="697.79" departSpeed="18.00" color="green">
        <route edges="gneE5 gneE3" color="yellow"/>
    </vehicle>
    <vehicle id="flow_0.72" depart="702.02" departSpeed="18.00" color="orange">
        <route edges="gneE5 gneE6" color="yellow"/>
    </vehicle>
    <vehicle id="flow_1.57" depart="709.27" departSpeed="18.00" color="green">
        <route edges="gneE5 gneE3" color="yellow"/>
    </vehicle>
    <vehicle id="flow_1.58" depart="709.44" departSpeed="18.00" color="green">
        <route edges="gneE5 gneE3" color="yellow"/>
    </vehicle>
    <vehicle id="flow_1.59" depart="720.77" departSpeed="18.00" color="green">
        <route edges="gneE5 gneE3" color="yellow"/>
    </vehicle>
    <vehicle id="flow_0.73" depart="724.95" departSpeed="18.00" color="orange">
        <route edges="gneE5 gneE6" color="yellow"/>
    </vehicle>
    <vehicle id="flow_1.60" depart="735.71" departSpeed="18.00" color="green">
        <route edges="gneE5 gneE3" color="yellow"/>
    </vehicle>
    <vehicle id="flow_1.61" depart="741.96" departSpeed="18.00" color="green">
        <route edges="gneE5 gneE3" color="yellow"/>
    </vehicle>
    <vehicle id="flow_0.74" depart="754.69" departSpeed="18.00" color="orange">
        <route edges="gneE5 gneE6" color="yellow"/>
    </vehicle>
    <vehicle id="flow_1.62" depart="759.36" departSpeed="18.00" color="green">
        <route edges="gneE5 gneE3" color="yellow"/>
    </vehicle>
    <vehicle id="flow_0.75" depart="759.41" departSpeed="18.00" color="orange">
        <route edges="gneE5 gneE6" color="yellow"/>
    </vehicle>
    <vehicle id="flow_0.76" depart="764.28" departSpeed="18.00" color="orange">
        <route edges="gneE5 gneE6" color="yellow"/>
    </vehicle>
    <vehicle id="flow_0.77" depart="765.40" departSpeed="18.00" color="orange">
        <route edges="gneE5 gneE6" color="yellow"/>
    </vehicle>
    <vehicle id="flow_1.63" depart="767.89" departSpeed="18.00" color="green">
        <route edges="gneE5 gneE3" color="yellow"/>
    </vehicle>
    <vehicle id="flow_0.78" depart="782.98" departSpeed="18.00" color="orange">
        <route edges="gneE5 gneE6" color="yellow"/>
    </vehicle>
    <vehicle id="flow_1.64" depart="784.00" departSpeed="18.00" color="green">
        <route edges="gneE5 gneE3" color="yellow"/>
    </vehicle>
    <vehicle id="flow_0.79" depart="785.27" departSpeed="18.00" color="orange">
        <route edges="gneE5 gneE6" color="yellow"/>
    </vehicle>
    <vehicle id="flow_0.80" depart="787.08" departSpeed="18.00" color="orange">
        <route edges="gneE5 gneE6" color="yellow"/>
    </vehicle>
    <vehicle id="flow_0.81" depart="790.51" departSpeed="18.00" color="orange">
        <route edges="gneE5 gneE6" color="yellow"/>
    </vehicle>
    <vehicle id="flow_0.82" depart="790.89" departSpeed="18.00" color="orange">
        <route edges="gneE5 gneE6" color="yellow"/>
    </vehicle>
    <vehicle id="flow_1.65" depart="809.06" departSpeed="18.00" color="green">
        <route edges="gneE5 gneE3" color="yellow"/>
    </vehicle>
    <vehicle id="flow_1.66" depart="809.33" departSpeed="18.00" color="green">
        <route edges="gneE5 gneE3" color="yellow"/>
    </vehicle>
    <vehicle id="flow_1.67" depart="809.38" departSpeed="18.00" color="green">
        <route edges="gneE5 gneE3" color="yellow"/>
    </vehicle>
    <vehicle id="flow_0.83" depart="819.88" departSpeed="18.00" color="orange">
        <route edges="gneE5 gneE6" color="yellow"/>
    </vehicle>
    <vehicle id="flow_0.84" depart="833.34" departSpeed="18.00" color="orange">
        <route edges="gneE5 gneE6" color="yellow"/>
    </vehicle>
    <vehicle id="flow_1.68" depart="835.99" departSpeed="18.00" color="green">
        <route edges="gneE5 gneE3" color="yellow"/>
    </vehicle>
    <vehicle id="flow_1.69" depart="836.65" departSpeed="18.00" color="green">
        <route edges="gneE5 gneE3" color="yellow"/>
    </vehicle>
    <vehicle id="flow_0.85" depart="842.52" departSpeed="18.00" color="orange">
        <route edges="gneE5 gneE6" color="yellow"/>
    </vehicle>
    <vehicle id="flow_1.70" depart="845.77" departSpeed="18.00" color="green">
        <route edges="gneE5 gneE3" color="yellow"/>
    </vehicle>
    <vehicle id="flow_1.71" depart="852.86" departSpeed="18.00" color="green">
        <route edges="gneE5 gneE3" color="yellow"/>
    </vehicle>
    <vehicle id="flow_0.86" depart="859.60" departSpeed="18.00" color="orange">
        <route edges="gneE5 gneE6" color="yellow"/>
    </vehicle>
    <vehicle id="flow_1.72" depart="864.66" departSpeed="18.00" color="green">
        <route edges="gneE5 gneE3" color="yellow"/>
    </vehicle>
    <vehicle id="flow_0.87" depart="869.60" departSpeed="18.00" color="orange">
        <route edges="gneE5 gneE6" color="yellow"/>
    </vehicle>
    <vehicle id="flow_1.73" depart="873.05" departSpeed="18.00" color="green">
        <route edges="gneE5 gneE3" color="yellow"/>
    </vehicle>
    <vehicle id="flow_1.74" depart="873.90" departSpeed="18.00" color="green">
        <route edges="gneE5 gneE3" color="yellow"/>
    </vehicle>
    <vehicle id="flow_1.75" depart="876.21" departSpeed="18.00" color="green">
        <route edges="gneE5 gneE3" color="yellow"/>
    </vehicle>
    <vehicle id="flow_0.88" depart="891.90" departSpeed="18.00" color="orange">
        <route edges="gneE5 gneE6" color="yellow"/>
    </vehicle>
    <vehicle id="flow_1.76" depart="896.61" departSpeed="18.00" color="green">
        <route edges="gneE5 gneE3" color="yellow"/>
    </vehicle>
    <vehicle id="flow_0.89" depart="912.02" departSpeed="18.00" color="orange">
        <route edges="gneE5 gneE6" color="yellow"/>
    </vehicle>
    <vehicle id="flow_1.77" depart="913.45" departSpeed="18.00" color="green">
        <route edges="gneE5 gneE3" color="yellow"/>
    </vehicle>
    <vehicle id="flow_1.78" depart="913.53" departSpeed="18.00" color="green">
        <route edges="gneE5 gneE3" color="yellow"/>
    </vehicle>
    <vehicle id="flow_1.79" depart="923.23" departSpeed="18.00" color="green">
        <route edges="gneE5 gneE3" color="yellow"/>
    </vehicle>
    <vehicle id="flow_0.90" depart="927.91" departSpeed="18.00" color="orange">
        <route edges="gneE5 gneE6" color="yellow"/>
    </vehicle>
    <vehicle id="flow_0.91" depart="928.90" departSpeed="18.00" color="orange">
        <route edges="gneE5 gneE6" color="yellow"/>
    </vehicle>
    <vehicle id="flow_1.80" depart="937.38" departSpeed="18.00" color="green">
        <route edges="gneE5 gneE3" color="yellow"/>
    </vehicle>
    <vehicle id="flow_1.81" depart="937.58" departSpeed="18.00" color="green">
        <route edges="gneE5 gneE3" color="yellow"/>
    </vehicle>
    <vehicle id="flow_1.82" depart="946.82" departSpeed="18.00" color="green">
        <route edges="gneE5 gneE3" color="yellow"/>
    </vehicle>
    <vehicle id="flow_0.92" depart="957.25" departSpeed="18.00" color="orange">
        <route edges="gneE5 gneE6" color="yellow"/>
    </vehicle>
    <vehicle id="flow_0.93" depart="965.56" departSpeed="18.00" color="orange">
        <route edges="gneE5 gneE6" color="yellow"/>
    </vehicle>
    <vehicle id="flow_0.94" depart="972.03" departSpeed="18.00" color="orange">
        <route edges="gneE5 gneE6" color="yellow"/>
    </vehicle>
    <vehicle id="flow_1.83" depart="972.40" departSpeed="18.00" color="green">
        <route edges="gneE5 gneE3" color="yellow"/>
    </vehicle>
    <vehicle id="flow_1.84" depart="973.10" departSpeed="18.00" color="green">
        <route edges="gneE5 gneE3" color="yellow"/>
    </vehicle>
    <vehicle id="flow_0.95" depart="984.39" departSpeed="18.00" color="orange">
        <route edges="gneE5 gneE6" color="yellow"/>
    </vehicle>
    <vehicle id="flow_0.96" depart="997.77" departSpeed="18.00" color="orange">
        <route edges="gneE5 gneE6" color="yellow"/>
    </vehicle>
    <vehicle id="flow_1.85" depart="998.62" departSpeed="18.00" color="green">
        <route edges="gneE5 gneE3" color="yellow"/>
    </vehicle>
    <vehicle id="flow_0.97" depart="1006.16" departSpeed="18.00" color="orange">
        <route edges="gneE5 gneE6" color="yellow"/>
    </vehicle>
    <vehicle id="flow_1.86" depart="1010.05" departSpeed="18.00" color="green">
        <route edges="gneE5 gneE3" color="yellow"/>
    </vehicle>
    <vehicle id="flow_1.87" depart="1010.30" departSpeed="18.00" color="green">
        <route edges="gneE5 gneE3" color="yellow"/>
    </vehicle>
    <vehicle id="flow_1.88" depart="1025.76" departSpeed="18.00" color="green">
        <route edges="gneE5 gneE3" color="yellow"/>
    </vehicle>
    <vehicle id="flow_0.98" depart="1034.54" departSpeed="18.00" color="orange">
        <route edges="gneE5 gneE6" color="yellow"/>
    </vehicle>
    <vehicle id="flow_0.99" depart="1038.84" departSpeed="18.00" color="orange">
        <route edges="gneE5 gneE6" color="yellow"/>
    </vehicle>
    <vehicle id="flow_0.100" depart="1049.14" departSpeed="18.00" color="orange">
        <route edges="gneE5 gneE6" color="yellow"/>
    </vehicle>
    <vehicle id="flow_1.89" depart="1049.38" departSpeed="18.00" color="green">
        <route edges="gneE5 gneE3" color="yellow"/>
    </vehicle>
    <vehicle id="flow_0.101" depart="1054.94" departSpeed="18.00" color="orange">
        <route edges="gneE5 gneE6" color="yellow"/>
    </vehicle>
    <vehicle id="flow_1.90" depart="1061.48" departSpeed="18.00" color="green">
        <route edges="gneE5 gneE3" color="yellow"/>
    </vehicle>
    <vehicle id="flow_1.91" depart="1061.75" departSpeed="18.00" color="green">
        <route edges="gneE5 gneE3" color="yellow"/>
    </vehicle>
    <vehicle id="flow_1.92" depart="1066.39" departSpeed="18.00" color="green">
        <route edges="gneE5 gneE3" color="yellow"/>
    </vehicle>